power-flow-agent/results/ieee14/2026-09-29/gpt-5.6-sol/llm_only_structured/traces/17_case14-plain-004-s0.transcript.txt
==============================================================================
TRANSCRIPT  llm_only:structured  |  openrouter:openai/gpt-5.6-sol  |  case14  |  case14-plain-004-s0  run 0
==============================================================================
date: 2026-09-29   seed: 0   difficulty: plain   tool variant: load_split

[system]   (hash 183abd966fbd, from methods/llm_only_structured/method.json prompt_files)
You are a power system power-flow analysis assistant. You complete power system analysis tasks from natural-language requests. In this setting you have no tools: the user message gives you the full network data tables, and you must work out the requested AC power-flow results yourself from that data.

## Rules
- Never fabricate a numerical result. Every voltage, power, loss, or loading value you report must come from a solver output (tool-using methods) or from your own explicit computation on the data given (methods without tools).
- If the request is ambiguous, state the interpretation you are using in `summary`.
- Bus and line identifiers in the request are MATPOWER 1-based ids; use them as given, unless the request itself states a different indexing convention for that identifier (e.g. "(0-based)"), in which case convert it to the MATPOWER 1-based id.
- If you cannot complete the request, say so: set `converged` to false, leave the result arrays empty, and explain why in `cannot_answer`. Do not guess.
- Always reply in English, and only with the JSON object described under Output.

[user]   (complete message, stored at run time)
System base: 100 MVA. Every per-unit quantity below (r_pu, x_pu, b_pu) is defined on this base. Line and transformer impedances (r_pu, x_pu, b_pu) are already in per unit on this base, not ohms per km; do not convert them further. Branch thermal ratings are the rating_mva column (MVA). loading_percent of a branch is 100 * sqrt(p_from_mw^2 + q_from_mvar^2) / rating_mva on its from side (hv side for a transformer); a branch is overloaded above 100 %.

You are a power systems expert. Based on the following IEEE case14 test system data, calculate the AC power flow results.

## System Data (from pandapower network tables)

### Node Data (Bus Table: net.bus)

    name type zone  in_service
0      1    b  1.0        True
1      2    b  1.0        True
2      3    b  1.0        True
3      4    b  1.0        True
4      5    b  1.0        True
5      6    b  1.0        True
6      7    b  1.0        True
7      8    b  1.0        True
8      9    b  1.0        True
9     10    b  1.0        True
10    11    b  1.0        True
11    12    b  1.0        True
12    13    b  1.0        True
13    14    b  1.0        True

### Load Data (Load Table: net.load)

    bus        p_mw     q_mvar  in_service
0     2   23.133729  13.539095        True
1     3  102.119882  20.597429        True
2     4   43.549620  -3.553212        True
3     5    7.233866   1.522919        True
4     6   11.865991   7.945976        True
5     9   28.038348  15.777511        True
6    10    8.431548   5.433664        True
7    11    3.846476   1.978188        True
8    12    5.889155   1.544696        True
9    13   13.665927   5.871287        True
10   14   14.218676   4.771368        True

### Generator Data (Generator Table: net.gen)

   bus       p_mw  vm_pu  min_p_mw  max_p_mw  min_q_mvar  max_q_mvar  in_service
0    2  38.752482  1.045       0.0     140.0       -40.0        50.0        True
1    3   0.000000  1.010       0.0     100.0         0.0        40.0        True
2    6   0.000000  1.070       0.0     100.0        -6.0        24.0        True
3    8   0.000000  1.090       0.0     100.0        -6.0        24.0        True

### Balanced Node/External Grid (External Grid Table: net.ext_grid)

   bus  vm_pu  va_degree  in_service
0    1   1.06        0.0        True

### Line Data (Line Table: net.line)

    from_bus  to_bus     r_pu     x_pu    b_pu  rating_mva  parallel  in_service
0          1       2  0.01938  0.05917  0.0528      197.76         1        True
1          1       5  0.05403  0.22304  0.0492       94.51         1        True
2          2       3  0.04699  0.19797  0.0438       91.66         1        True
3          2       4  0.05811  0.17632  0.0340       70.19         1        True
4          2       5  0.05695  0.17388  0.0346       51.92         1        True
5          3       4  0.06701  0.17103  0.0128       29.64         1        True
6          4       5  0.01335  0.04211  0.0000       78.97         1        True
7          6      11  0.09498  0.19890  0.0000       10.21         1        True
8          6      12  0.12291  0.25581  0.0000       10.22         1        True
9          6      13  0.06615  0.13027  0.0000       23.95         1        True
10         9      10  0.03181  0.08450  0.0000        9.89         1        True
11         9      14  0.12711  0.27038  0.0000       12.62         1        True
12        10      11  0.08205  0.19207  0.0000        9.89         1        True
13        12      13  0.22092  0.19988  0.0000        9.89         1        True
14        13      14  0.17093  0.34802  0.0000        9.89         1        True

### Transformer Data (Transformer Table: net.trafo)

   hv_bus  lv_bus  r_pu     x_pu  rating_mva  shift_degree tap_side  tap_neutral  tap_min  tap_max  tap_step_percent  in_service
0       4       7   0.0  0.20912       37.12           0.0       hv          0.0      NaN      NaN               2.2        True
1       4       9   0.0  0.55618       20.11           0.0       hv          0.0      NaN      NaN               3.1        True
2       5       6   0.0  0.25202       57.27           0.0       hv          0.0      NaN      NaN               6.8        True
3       7       8   0.0  0.17615       21.45           0.0     None          NaN      NaN      NaN               NaN        True
4       7       9   0.0  0.11001       35.83           0.0     None          NaN      NaN      NaN               NaN        True

## Task
Load case14 and run an N-1 contingency analysis and report the worst single outage.

## Operations
The solver operations available to a tool-based assistant, for the `formulation` field of your answer (* = required argument). You cannot call them here; you declare which ones the request needs, then compute the results yourself from the data above.

- load_case(case_name: string in {case14, case30, case57, case118, case300}*): Load IEEE test case.
- run_powerflow((none)): Run power flow on current case.
- disconnect_line(from_bus: integer*, to_bus: integer*): Disconnect line/branch between two buses and recompute.
- reconnect_line(from_bus: integer*, to_bus: integer*): Reconnect line/branch between two buses and recompute.
- get_most_loaded_branch((none)): Get most loaded branch.
- run_n1_contingency(top_k: integer (How many worst outages to return), criteria: string in {max_violations, max_overload, min_voltage} (Ranking criterion), max_candidates: integer (How many branches to scan; 0 scans every branch of the network. Leave 0 unless the request asks to limit the scan)): Run N-1 contingency analysis.
- recommend_remedial_actions(max_actions: integer, allow_load_shed: boolean, allow_voltage_control: boolean, include_best_comparison: boolean): Recommend remedial actions.
- apply_remedial_action(action_index: integer*, confirmed: boolean): Apply one remedial action by index.
- get_status((none)): Get current network status.
- generate_plot(plot_type: string in {voltage_heatmap, flow_diagram, violation_overview, comparison}*): Generate one plot.
- set_active_load(bus_id: integer*, p_mw: number*): Set a bus's active load (MW) and recompute. Use this when the request states only an active-power value. This tool has no reactive-power argument: the bus's present reactive load is always left unchanged. If the request also states a reactive-power value, use set_load instead.
- set_load(bus_id: integer*, p_mw: number*, q_mvar: number*): Set a bus's active and reactive load (MW, Mvar) and recompute. Use this only when the request states both values. If the request states only an active-power value, use set_active_load instead -- do not invent a reactive-power value here to fill this in.

## Output Requirements
Reply with exactly one JSON object and nothing else (no prose before or after, no Markdown fences), with these fields, all present:

{
  "formulation": [{"tool": "load_case", "args": {"case_name": "case14"}}, {"tool": "run_powerflow", "args": {}}],
  "converged": true,
  "summary": "one sentence on what was done and the state of the network",
  "answer": "the specific thing the request asked for, with its numbers (e.g. 'Worst outage: line 1-5, 9 voltage violations' or 'Lowest voltage: bus 14 at 1.0357 p.u.')",
  "bus_voltages": [{"bus_id": 1, "vm_pu": 1.06, "va_deg": 0.0}],
  "line_flows": [{"line_id": 0, "from_bus": 1, "to_bus": 2, "p_from_mw": 156.9, "loading_percent": 44.8}],
  "total_generation_mw": 0.0,
  "total_load_mw": 0.0,
  "total_loss_mw": 0.0,
  "violations": {"voltage": [{"bus_id": 1, "vm_pu": 1.06}], "thermal": [{"line_id": 0, "loading_percent": 101.2}]},
  "next_step": "one suggested next action for the operator",
  "cannot_answer": null
}

- `formulation` is the ordered list of solver operations the request needs, using only the operation names and argument names of the operations catalogue: with tools, the operations you actually ran; without tools, the operations a solver-based assistant would run. Copy identifiers and values from the request; do not add arguments the request does not give.
- `bus_voltages` covers every bus of the network state you are reporting (the state after the last change; for a contingency scan, the base case the scan was run on), one entry per bus, `bus_id` in MATPOWER 1-based numbering; `line_flows` covers every branch, `line_id` as the branch index (transformers: 100000 + transformer index), with `from_bus` and `to_bus`.
- Voltage limits are 0.95 to 1.05 p.u.; a line is overloaded above 100 % loading. List the violations of the reported state.
- All numbers are finite (no NaN or Infinity). Copy them from the solver outputs when you have tools; otherwise they are your own computation on the data above.
- If you could not complete the request: `converged` false, empty arrays, zeros in the totals, and the reason in `cannot_answer` (a string); otherwise `cannot_answer` is null.

[assistant]
{"formulation":[{"tool":"load_case","args":{"case_name":"case14"}},{"tool":"run_powerflow","args":{}},{"tool":"run_n1_contingency","args":{"top_k":1,"criteria":"max_violations"}}],"converged":false,"summary":"Interpreted the worst single outage as the contingency producing the greatest number of voltage and thermal violations, but the full nonlinear AC N-1 scan could not be completed without a numerical solver.","answer":"Unable to determine the worst single outage reliably.","bus_voltages":[],"line_flows":[],"total_generation_mw":0.0,"total_load_mw":0.0,"total_loss_mw":0.0,"violations":{"voltage":[],"thermal":[]},"next_step":"Run an AC power-flow solver for the base case and each of the 20 single-branch outages, then rank converged contingencies by violation count.","cannot_answer":"Determining the worst outage requires solving 21 nonlinear AC power flows (the base case plus all 20 branch outages); no solver is available, and reporting numerical results without completing those computations would be fabrication."}
